# HOB package for  MODFLOW-2005, generated by Flopy.
       102         0         0         7      -777
         1
hed1                    1         29        127          1                  0.0     0.2632    -0.1631   313.0296   # DATASET 3 - Observation 1
hed2                    1         22         92          1                  0.0     0.1445    -0.3139   193.7309   # DATASET 3 - Observation 2
hed3                    1         64        134          1                  0.0     0.2033     0.1062   164.8663   # DATASET 3 - Observation 3
hed4                    1         42        108          1                  0.0     0.2041     0.2056   153.6192   # DATASET 3 - Observation 4
hed5                    2         68        125          1                  0.0    -0.0772    -0.1869    22.4942   # DATASET 3 - Observation 5
hed6                    2         87        117          1                  0.0    -0.4480     0.2936    19.8730   # DATASET 3 - Observation 6
hed7                    2        105         96          1                  0.0    -0.4395     0.0567    12.8016   # DATASET 3 - Observation 7
hed8                    1         96         97          1                  0.0    -0.1991     0.1668    11.2776   # DATASET 3 - Observation 8
hed9                    2        102         96          1                  0.0     0.2042     0.0405    10.9118   # DATASET 3 - Observation 9
hed10                   1         96         95          1                  0.0     0.1587    -0.4644    10.0584   # DATASET 3 - Observation 10
hed11                   1         65         43          1                  0.0    -0.4093     0.1186     9.8146   # DATASET 3 - Observation 11
hed12                   2         97         72          1                  0.0     0.3462     0.0115     9.7536   # DATASET 3 - Observation 12
hed13                   2         78         58          1                  0.0    -0.3951    -0.4588     9.5707   # DATASET 3 - Observation 13
hed14                   2         67         55          1                  0.0    -0.1431    -0.1637     9.5098   # DATASET 3 - Observation 14
hed15                   1         78         78          1                  0.0     0.1148     0.3185     9.4488   # DATASET 3 - Observation 15
hed16                   2         99         77          1                  0.0    -0.3435    -0.2971     9.4488   # DATASET 3 - Observation 16
hed17                   2        107         86          1                  0.0    -0.3420     0.1218     9.4488   # DATASET 3 - Observation 17
hed18                   2         65         45          1                  0.0    -0.0837    -0.4163     9.4183   # DATASET 3 - Observation 18
hed19                   2         98         66          1                  0.0    -0.2690    -0.1307     9.3878   # DATASET 3 - Observation 19
hed20                   2        104         94          1                  0.0     0.2377     0.2983     9.3878   # DATASET 3 - Observation 20
hed21                   2        102         90          1                  0.0    -0.0835    -0.1065     9.3269   # DATASET 3 - Observation 21
hed22                   1         70         52          1                  0.0    -0.0942     0.2234     9.2659   # DATASET 3 - Observation 22
hed23                   2        106         95          1                  0.0     0.2537    -0.3950     9.2354   # DATASET 3 - Observation 23
hed24                   2        102         61          1                  0.0     0.1465    -0.3684     9.2050   # DATASET 3 - Observation 24
hed25                   1         71         60          1                  0.0    -0.1417    -0.4552     9.1745   # DATASET 3 - Observation 25
hed26                   2         82         58          1                  0.0     0.3082     0.4501     9.1745   # DATASET 3 - Observation 26
hed27                   1        104         93          1                  0.0     0.2517    -0.4567     9.1440   # DATASET 3 - Observation 27
hed28                   2        106         96          1                  0.0     0.2443    -0.2246     9.1440   # DATASET 3 - Observation 28
hed29                   2         95         66          1                  0.0    -0.3672     0.2287     9.1440   # DATASET 3 - Observation 29
hed30                   2        107         89          1                  0.0    -0.3629    -0.2446     9.0830   # DATASET 3 - Observation 30
hed31                   2        107         93          1                  0.0    -0.3979     0.1441     9.0830   # DATASET 3 - Observation 31
hed32                   2        105         90          1                  0.0     0.2842    -0.3763     9.0526   # DATASET 3 - Observation 32
hed33                   2         81         63          1                  0.0    -0.0741     0.1230     9.0221   # DATASET 3 - Observation 33
hed34                   1        105         79          1                  0.0     0.0354    -0.4987     9.0221   # DATASET 3 - Observation 34
hed35                   2        110         95          1                  0.0    -0.0465    -0.0766     9.0221   # DATASET 3 - Observation 35
hed36                   2         68         44          1                  0.0    -0.3852    -0.2759     8.9611   # DATASET 3 - Observation 36
hed37                   2        102         67          1                  0.0    -0.2415     0.3596     8.8697   # DATASET 3 - Observation 37
hed38                   2        104         98          1                  0.0    -0.4992    -0.0195     8.8697   # DATASET 3 - Observation 38
hed39                   2        100         73          1                  0.0    -0.3045    -0.0941     8.8392   # DATASET 3 - Observation 39
hed40                   2         66         53          1                  0.0     0.1969     0.0761     8.7782   # DATASET 3 - Observation 40
hed41                   2         70         52          1                  0.0    -0.0942     0.2234     8.7782   # DATASET 3 - Observation 41
hed42                   2         93         71          1                  0.0     0.1872     0.0637     8.6868   # DATASET 3 - Observation 42
hed43                   2         82         54          1                  0.0     0.0089    -0.2330     8.6563   # DATASET 3 - Observation 43
hed44                   2        103         71          1                  0.0    -0.2644     0.4632     8.6258   # DATASET 3 - Observation 44
hed45                   2         84         51          1                  0.0    -0.2904     0.4377     8.5954   # DATASET 3 - Observation 45
hed46                   2         83         54          1                  0.0     0.3502     0.3616     8.5954   # DATASET 3 - Observation 46
hed47                   2        109         93          1                  0.0    -0.0370    -0.4244     8.5954   # DATASET 3 - Observation 47
hed48                   2         97         72          1                  0.0     0.3462     0.0115     8.5344   # DATASET 3 - Observation 48
hed49                   2         76         60          1                  0.0    -0.4350     0.1609     8.4734   # DATASET 3 - Observation 49
hed50                   2        103         70          1                  0.0    -0.2440    -0.3761     8.4734   # DATASET 3 - Observation 50
hed51                   2        102         62          1                  0.0     0.1351     0.0948     8.4734   # DATASET 3 - Observation 51
hed52                   2        100         65          1                  0.0     0.4297     0.0099     8.4430   # DATASET 3 - Observation 52
hed53                   2        103         99          1                  0.0     0.1876     0.2667     8.4430   # DATASET 3 - Observation 53
hed54                   2        107         87          1                  0.0    -0.0145     0.2945     8.4125   # DATASET 3 - Observation 54
hed55                   1        102         80          1                  0.0    -0.0047    -0.0561     8.4125   # DATASET 3 - Observation 55
hed56                   2        103         91          1                  0.0    -0.4216     0.3614     8.3820   # DATASET 3 - Observation 56
hed57                   2         96         62          1                  0.0     0.4124     0.3493     8.2906   # DATASET 3 - Observation 57
hed58                   2        100         76          1                  0.0    -0.3275    -0.1688     8.2906   # DATASET 3 - Observation 58
hed59                   2         95         71          1                  0.0    -0.3411     0.4087     8.2601   # DATASET 3 - Observation 59
hed60                   2        107         83          1                  0.0     0.0179     0.1976     8.2296   # DATASET 3 - Observation 60
hed61                   2         97         72          1                  0.0     0.3462     0.0115     8.1991   # DATASET 3 - Observation 61
hed62                   2         93         64          1                  0.0     0.3725    -0.2089     8.0772   # DATASET 3 - Observation 62
hed63                   1        106         91          1                  0.0    -0.0539     0.0916     8.0467   # DATASET 3 - Observation 63
hed64                   2         70         52          1                  0.0    -0.0942     0.2234     7.9553   # DATASET 3 - Observation 64
hed65                   2         62         57          1                  0.0     0.1320    -0.4394     7.9248   # DATASET 3 - Observation 65
hed66                   2         70         52          1                  0.0    -0.0942     0.2234     7.9248   # DATASET 3 - Observation 66
hed67                   1         93         66          1                  0.0    -0.3158    -0.1646     7.9248   # DATASET 3 - Observation 67
hed68                   2         70         52          1                  0.0    -0.0942     0.2234     7.8943   # DATASET 3 - Observation 68
hed69                   2         70         52          1                  0.0    -0.0942     0.2234     7.8943   # DATASET 3 - Observation 69
hed70                   2        101         72          1                  0.0     0.3874    -0.2541     7.8943   # DATASET 3 - Observation 70
hed71                   2        103         86          1                  0.0     0.2903     0.3906     7.8638   # DATASET 3 - Observation 71
hed72                   2         74         43          1                  0.0    -0.3257     0.4713     7.8029   # DATASET 3 - Observation 72
hed73                   2         70         52          1                  0.0    -0.0942     0.2234     7.8029   # DATASET 3 - Observation 73
hed74                   2        101         70          1                  0.0     0.0666    -0.3042     7.5895   # DATASET 3 - Observation 74
hed75                   2         97         72          1                  0.0     0.3462     0.0115     7.1933   # DATASET 3 - Observation 75
hed76                   2         97         72          1                  0.0     0.3462     0.0115     7.1933   # DATASET 3 - Observation 76
hed77                   2         97         72          1                  0.0     0.3462     0.0115     7.1018   # DATASET 3 - Observation 77
hed78                   2         91         70          1                  0.0     0.1369     0.0386     7.0714   # DATASET 3 - Observation 78
hed79                   2         98         61          1                  0.0     0.4433    -0.1004     6.8580   # DATASET 3 - Observation 79
hed80                   2         54         72          1                  0.0    -0.4025     0.0086     6.8550   # DATASET 3 - Observation 80
hed81                   2         57         59          1                  0.0     0.0635     0.1597     6.7970   # DATASET 3 - Observation 81
hed82                   2         66         58          1                  0.0     0.4974    -0.2401     6.6751   # DATASET 3 - Observation 82
hed83                   2         57         69          1                  0.0    -0.0164     0.3985     6.5867   # DATASET 3 - Observation 83
hed84                   2         97         71          1                  0.0    -0.3193     0.1294     6.4008   # DATASET 3 - Observation 84
hed85                   2         91         83          1                  0.0     0.2060    -0.4959     6.1996   # DATASET 3 - Observation 85
hed86                   2        102         78          1                  0.0    -0.3218    -0.3991     5.8522   # DATASET 3 - Observation 86
hed87                   2         99         67          1                  0.0    -0.4681    -0.2183     5.8430   # DATASET 3 - Observation 87
hed88                   2        105         83          1                  0.0     0.0008    -0.1090     5.7912   # DATASET 3 - Observation 88
hed89                   2         94         93          1                  0.0    -0.1870     0.3491     4.8768   # DATASET 3 - Observation 89
hed90                   2         68         45          1                  0.0     0.2794    -0.1013     4.0843   # DATASET 3 - Observation 90
hed91                   2         57         85          1                  0.0    -0.1434     0.4886     3.9502   # DATASET 3 - Observation 91
hed92                   2         77         44          1                  0.0    -0.3039     0.3687     3.9319   # DATASET 3 - Observation 92
hed93                   2        101         74          1                  0.0     0.3667     0.3794     1.8288   # DATASET 3 - Observation 93
hed94                   2         94         63          1                  0.0     0.0551    -0.3747     1.1278   # DATASET 3 - Observation 94
hed95                   2         96         67          1                  0.0     0.0415    -0.2646     1.0973   # DATASET 3 - Observation 95
hed96                   2         94         63          1                  0.0     0.0551    -0.3747     1.0973   # DATASET 3 - Observation 96
hed97                   2         97         72          1                  0.0     0.3462     0.0115     0.9144   # DATASET 3 - Observation 97
hed98                   2        116         83          1                  0.0     0.4405     0.2617     0.8839   # DATASET 3 - Observation 98
hed99                   2         82         57          1                  0.0     0.3218    -0.3047     0.4572   # DATASET 3 - Observation 99
hed100                  2         91         64          1                  0.0     0.0129     0.3610     0.4572   # DATASET 3 - Observation 100
hed101                  2         90         64          1                  0.0    -0.3307     0.0591     0.1219   # DATASET 3 - Observation 101
hed102                  2         77         44          1                  0.0    -0.3039     0.3687     0.0914   # DATASET 3 - Observation 102
