# WEL package for  MODFLOW-2005, generated by Flopy.
        24        40 AUX IFACE AUX QFACT AUX CELLGRP
        24         0 # stress period 1
         1        22        92  -4.3187900E+02   0.0000000E+00   1.0000000E+00   1.0000000E+00
         2        57        59  -2.8049399E+03   0.0000000E+00   1.0000000E+00   2.0000000E+00
         2        57        59  -5.4734902E+03   0.0000000E+00   1.0000000E+00   3.0000000E+00
         2        54        72  -7.2737402E+02   0.0000000E+00   1.0000000E+00   4.0000000E+00
         2        57        69  -3.0004199E+02   0.0000000E+00   1.0000000E+00   5.0000000E+00
         2        76        60  -4.5460901E+00   0.0000000E+00   1.0000000E+00   6.0000000E+00
         1        70        52  -1.0862600E+03   0.0000000E+00   1.0000000E+00   7.0000000E+00
         2        70        52  -2.2708000E+04   0.0000000E+00   1.0000000E+00   7.0000000E+00
         2        68       125  -1.2168400E+03   0.0000000E+00   1.0000000E+00   8.0000000E+00
         1        67       138  -7.7283502E+02   0.0000000E+00   1.0000000E+00   9.0000000E+00
         2        99        67  -1.6820500E+02   0.0000000E+00   1.0000000E+00   1.0000000E+01
         2        95        60  -6.4054399E+03   0.0000000E+00   1.0000000E+00   1.1000000E+01
         2       104        75  -4.6097402E+03   0.0000000E+00   1.0000000E+00   1.2000000E+01
         2        93        71  -1.0319600E+03   0.0000000E+00   1.0000000E+00   1.3000000E+01
         2        97        72  -2.7981199E+04   0.0000000E+00   1.0000000E+00   1.4000000E+01
         2        91        70  -2.2730400E+01   0.0000000E+00   1.0000000E+00   1.5000000E+01
         2       105        79  -5.1825403E+02   0.0000000E+00   1.0000000E+00   1.6000000E+01
         2       104        99  -2.8699400E+04   0.0000000E+00   1.0000000E+00   1.7000000E+01
         2       103        98  -6.9720398E+02   0.0000000E+00   1.0000000E+00   1.8000000E+01
         2       109        60  -1.2360800E+04   0.0000000E+00   1.0000000E+00   1.9000000E+01
         2       109        60  -3.1913601E+03   0.0000000E+00   1.0000000E+00   2.0000000E+01
         1       117        85  -0.0000000E+00   0.0000000E+00   1.0000000E+00   2.1000000E+01
         2       117        85  -1.0410500E+03   0.0000000E+00   1.0000000E+00   2.1000000E+01
         2       109        85  -9.1376398E+02   0.0000000E+00   1.0000000E+00   2.2000000E+01
