# Name file for MODFLOW-2005, generated by Flopy version 3.2.9.
#xul:0; yul:13706.00052; rotation:0; proj4_str:+init=EPSG:4326; units:meters; lenuni:2; length_multiplier:1.0 ;start_datetime:1/1/1970
LIST               2  test2.list
DIS               11  test2.dis 
BAS6              13  test2.bas 
LPF               15  test2.lpf 
RCH               19  test2.rch 
WEL               20  test2.wel 
PCG               27  test2.pcg 
HOB               39  test2.hob 
OC                14  test2.oc 
DATA(BINARY)      40  test2.cbc REPLACE
DATA               7  test2.hob.out
DATA(BINARY)      51  test2.hds REPLACE
