# WEL package for  MODFLOW-2005, generated by Flopy.
        62        40 AUX IFACE AUX QFACT AUX CELLGRP
        62         0 # stress period 1
         1        56        28  -3.0000000E+04   0.0000000E+00   1.0000000E+00   1.0000000E+00
         1        55        29  -3.0000000E+04   0.0000000E+00   1.0000000E+00   2.0000000E+00
         1        66        36  -3.0000000E+04   0.0000000E+00   1.0000000E+00   3.0000000E+00
         1        66        40  -3.0000000E+04   0.0000000E+00   1.0000000E+00   4.0000000E+00
         1        65        41  -3.0000000E+04   0.0000000E+00   1.0000000E+00   5.0000000E+00
         1        65        41  -3.0000000E+04   0.0000000E+00   1.0000000E+00   6.0000000E+00
         1        65        41  -3.0000000E+04   0.0000000E+00   1.0000000E+00   7.0000000E+00
         1        65        41  -3.0000000E+04   0.0000000E+00   1.0000000E+00   8.0000000E+00
         1        64        41  -3.0000000E+04   0.0000000E+00   1.0000000E+00   9.0000000E+00
         1        63        41  -3.0000000E+04   0.0000000E+00   1.0000000E+00   1.0000000E+01
         1        62        41  -3.0000000E+04   0.0000000E+00   1.0000000E+00   1.1000000E+01
         1        61        39  -3.0000000E+04   0.0000000E+00   1.0000000E+00   1.2000000E+01
         1        61        39  -3.0000000E+04   0.0000000E+00   1.0000000E+00   1.3000000E+01
         1        79        36  -3.0000000E+04   0.0000000E+00   1.0000000E+00   1.4000000E+01
         1        79        36  -3.0000000E+04   0.0000000E+00   1.0000000E+00   1.5000000E+01
         1        79        36  -3.0000000E+04   0.0000000E+00   1.0000000E+00   1.6000000E+01
         1        78        38  -3.0000000E+04   0.0000000E+00   1.0000000E+00   1.7000000E+01
         1        70        28  -3.0000000E+04   0.0000000E+00   1.0000000E+00   1.8000000E+01
         1        71        29  -3.0000000E+04   0.0000000E+00   1.0000000E+00   1.9000000E+01
         1        72        29  -3.0000000E+04   0.0000000E+00   1.0000000E+00   2.0000000E+01
         1        74        28  -3.0000000E+04   0.0000000E+00   1.0000000E+00   2.1000000E+01
         1        74        27  -3.0000000E+04   0.0000000E+00   1.0000000E+00   2.2000000E+01
         1        76        30  -3.0000000E+04   0.0000000E+00   1.0000000E+00   2.3000000E+01
         1        76        30  -3.0000000E+04   0.0000000E+00   1.0000000E+00   2.4000000E+01
         1        77        30  -3.0000000E+04   0.0000000E+00   1.0000000E+00   2.5000000E+01
         1        78        30  -3.0000000E+04   0.0000000E+00   1.0000000E+00   2.6000000E+01
         1        61        39  -3.0000000E+04   0.0000000E+00   1.0000000E+00   2.7000000E+01
         1        33        49  -3.0000000E+04   0.0000000E+00   1.0000000E+00   2.8000000E+01
         1        35        50  -3.0000000E+04   0.0000000E+00   1.0000000E+00   2.9000000E+01
         1        36        50  -3.0000000E+04   0.0000000E+00   1.0000000E+00   3.0000000E+01
         1        37        49  -3.0000000E+04   0.0000000E+00   1.0000000E+00   3.1000000E+01
         1        37        53  -3.0000000E+04   0.0000000E+00   1.0000000E+00   3.2000000E+01
         1        30        64  -3.0000000E+04   0.0000000E+00   1.0000000E+00   3.3000000E+01
         1        29        64  -3.0000000E+04   0.0000000E+00   1.0000000E+00   3.4000000E+01
         1        29        78  -3.0000000E+04   0.0000000E+00   1.0000000E+00   3.5000000E+01
         1        19        94  -3.0000000E+04   0.0000000E+00   1.0000000E+00   3.6000000E+01
         1        20        93  -3.0000000E+04   0.0000000E+00   1.0000000E+00   3.7000000E+01
         1        27        88  -3.0000000E+04   0.0000000E+00   1.0000000E+00   3.8000000E+01
         1        44        43  -3.0000000E+04   0.0000000E+00   1.0000000E+00   3.9000000E+01
         1        45        43  -3.0000000E+04   0.0000000E+00   1.0000000E+00   4.0000000E+01
         1        66        40  -3.0000000E+04   0.0000000E+00   1.0000000E+00   4.1000000E+01
         1        30        64  -3.0000000E+04   0.0000000E+00   1.0000000E+00   4.2000000E+01
         1        37        53  -3.0000000E+04   0.0000000E+00   1.0000000E+00   4.3000000E+01
         1        76        36  -3.0000000E+04   0.0000000E+00   1.0000000E+00   4.4000000E+01
         1        21        61  -3.0000000E+04   0.0000000E+00   1.0000000E+00   4.5000000E+01
         1        71        38  -3.0000000E+04   0.0000000E+00   1.0000000E+00   4.6000000E+01
         1        29        67  -3.0000000E+04   0.0000000E+00   1.0000000E+00   4.7000000E+01
         1        29        67  -3.0000000E+04   0.0000000E+00   1.0000000E+00   4.8000000E+01
         1        72        37  -3.0000000E+04   0.0000000E+00   1.0000000E+00   4.9000000E+01
         1        56        11  -3.0000000E+04   0.0000000E+00   1.0000000E+00   5.0000000E+01
         1        56        11  -3.0000000E+04   0.0000000E+00   1.0000000E+00   5.1000000E+01
         1        28        88  -3.0000000E+04   0.0000000E+00   1.0000000E+00   5.2000000E+01
         1        72        35  -3.0000000E+04   0.0000000E+00   1.0000000E+00   5.3000000E+01
         1        21        62  -3.0000000E+04   0.0000000E+00   1.0000000E+00   5.4000000E+01
         1        72        34  -3.0000000E+04   0.0000000E+00   1.0000000E+00   5.5000000E+01
         1        19        94  -3.0000000E+04   0.0000000E+00   1.0000000E+00   5.6000000E+01
         1        26        94  -3.0000000E+04   0.0000000E+00   1.0000000E+00   5.7000000E+01
         1        26        94  -3.0000000E+04   0.0000000E+00   1.0000000E+00   5.8000000E+01
         1        24        72  -3.0000000E+04   0.0000000E+00   1.0000000E+00   5.9000000E+01
         1        25        72  -3.0000000E+04   0.0000000E+00   1.0000000E+00   6.0000000E+01
         1        44        55  -3.0000000E+04   0.0000000E+00   1.0000000E+00   6.1000000E+01
         1        39        48  -3.0000000E+04   0.0000000E+00   1.0000000E+00   6.2000000E+01
