# Name file for MODFLOW-2005, generated by Flopy version 3.2.9.
#xul:0; yul:17529.60052; rotation:0; proj4_str:+init=EPSG:4326; units:meters; lenuni:2; length_multiplier:1.0 ;start_datetime:1/1/1970
LIST               2  test_no_4.list
DIS               11  test_no_4.dis 
BAS6              13  test_no_4.bas 
LPF               15  test_no_4.lpf 
RCH               19  test_no_4.rch 
WEL               20  test_no_4.wel 
PCG               27  test_no_4.pcg 
OC                14  test_no_4.oc 
DATA(BINARY)      40  test_no_4.cbc REPLACE
DATA(BINARY)      51  test_no_4.hds REPLACE
