# MF2K NAME file
#
# MODFLOW 2005
# Output Files
LIST            1 "TutCoast_simple5.out"
DATA(BINARY)    2 "TutCoast_simple5.hed"
DATA(BINARY)   40 "TutCoast_simple5.ccf"
LMT6            3 "TutCoast_simple5.lmt"
#
# Obs-Sen-Pes Process Input Files
HOB             4 "TutCoast_simple5.hob"
#
# Obs Process Output File(s)
DATA            7 "TutCoast_simple5._os"
#
# Global Input Files
DIS             8 "TutCoast_simple5.dis"
#
# Flow Process Input Files
BAS6            9 "TutCoast_simple5.ba6"
LPF            10 "TutCoast_simple5.lpf"
OC             11 "TutCoast_simple5.oc"
RCH            12 "TutCoast_simple5.rch"
WEL            13 "TutCoast_simple5.wel"
PCG            14 "TutCoast_simple5.pcg"
