# WEL package for  MODFLOW-2005, generated by Flopy.
         2         0
         2         0 # stress period 1
         1         3         5  -5.2768496E+03
         1         8         5  -1.0553700E+03
