# HOB package for  MODFLOW-2005, generated by Flopy.
        17         0         0         7      -777
         1
hed1                    1         60         40          1                  0.0     0.3923    -0.2131     6.5461   # DATASET 3 - Observation 1
hed2                    1         56         30          1                  0.0     0.4014    -0.2740     6.7214   # DATASET 3 - Observation 2
hed3                    1         71         27          1                  0.0     0.0070    -0.0072     5.3123   # DATASET 3 - Observation 3
hed4                    1         26         73          1                  0.0    -0.0314    -0.4346     1.6269   # DATASET 3 - Observation 4
hed5                    1         23         61          1                  0.0    -0.4521     0.3631     1.5520   # DATASET 3 - Observation 5
hed6                    1         31         63          1                  0.0    -0.1952     0.2712     1.1732   # DATASET 3 - Observation 6
hed7                    1         79         31          1                  0.0     0.0278    -0.1744     4.3852   # DATASET 3 - Observation 7
hed8                    1         56         12          1                  0.0    -0.1884     0.1225     1.2960   # DATASET 3 - Observation 8
hed9                    1         39         50          1                  0.0    -0.0562     0.0993     3.0701   # DATASET 3 - Observation 9
hed10                   1         27         78          1                  0.0     0.1482     0.1049     1.2248   # DATASET 3 - Observation 10
hed11                   1         68         38          1                  0.0     0.1970     0.4662     6.3680   # DATASET 3 - Observation 11
hed12                   1         73         35          1                  0.0     0.3766    -0.4272     6.4445   # DATASET 3 - Observation 12
hed13                   1         71         36          1                  0.0     0.2974     0.0504     6.6686   # DATASET 3 - Observation 13
hed14                   1         81         36          1                  0.0     0.1750    -0.1474     3.3818   # DATASET 3 - Observation 14
hed15                   1         27         87          1                  0.0     0.0302     0.1529     1.1184   # DATASET 3 - Observation 15
hed16                   1         45         54          1                  0.0     0.1955    -0.0845     2.6083   # DATASET 3 - Observation 16
hed17                   1         21         93          1                  0.0     0.3683    -0.4306     1.1608   # DATASET 3 - Observation 17
