                                  MODFLOW-2000
      U.S. GEOLOGICAL SURVEY MODULAR FINITE-DIFFERENCE GROUND-WATER FLOW MODEL
                           VERSION 1.19.01 03/25/2010


 This model run produced both GLOBAL and LIST files.  This is the GLOBAL file.

 GLOBAL LISTING FILE: "TutCoast_simple4.glo"
                         UNIT    1

 OPENING "TutCoast_simple4.out"
 FILE TYPE:LIST   UNIT    2   STATUS:REPLACE
 FORMAT:FORMATTED              ACCESS:SEQUENTIAL          

 OPENING "TutCoast_simple4.hed"
 FILE TYPE:DATA(BINARY)   UNIT    3   STATUS:UNKNOWN
 FORMAT:BINARY                 ACCESS:SEQUENTIAL          

 OPENING "TutCoast_simple4.ccf"
 FILE TYPE:DATA(BINARY)   UNIT   40   STATUS:UNKNOWN
 FORMAT:BINARY                 ACCESS:SEQUENTIAL          

 OPENING "TutCoast_simple4.lmt"
 FILE TYPE:LMT6   UNIT    4   STATUS:OLD    
 FORMAT:FORMATTED              ACCESS:SEQUENTIAL          
#                                                                                                                                                                                                       
# Obs-Sen-Pes Process Input Files                                                                                                                                                                       

 OPENING "TutCoast_simple4.obs"
 FILE TYPE:OBS   UNIT   14   STATUS:OLD    
 FORMAT:FORMATTED              ACCESS:SEQUENTIAL          

 OPENING "TutCoast_simple4.hob"
 FILE TYPE:HOB   UNIT   15   STATUS:OLD    
 FORMAT:FORMATTED              ACCESS:SEQUENTIAL          
#                                                                                                                                                                                                       
# Global Input Files                                                                                                                                                                                    

 OPENING "TutCoast_simple4.dis"
 FILE TYPE:DIS   UNIT    7   STATUS:OLD    
 FORMAT:FORMATTED              ACCESS:SEQUENTIAL          
#                                                                                                                                                                                                       
# Flow Process Input Files                                                                                                                                                                              

 OPENING "TutCoast_simple4.ba6"
 FILE TYPE:BAS6   UNIT    8   STATUS:OLD    
 FORMAT:FORMATTED              ACCESS:SEQUENTIAL          

 OPENING "TutCoast_simple4.lpf"
 FILE TYPE:LPF   UNIT    9   STATUS:OLD    
 FORMAT:FORMATTED              ACCESS:SEQUENTIAL          

 OPENING "TutCoast_simple4.oc"
 FILE TYPE:OC   UNIT   10   STATUS:OLD    
 FORMAT:FORMATTED              ACCESS:SEQUENTIAL          

 OPENING "TutCoast_simple4.rch"
 FILE TYPE:RCH   UNIT   11   STATUS:OLD    
 FORMAT:FORMATTED              ACCESS:SEQUENTIAL          

 OPENING "TutCoast_simple4.wel"
 FILE TYPE:WEL   UNIT   12   STATUS:OLD    
 FORMAT:FORMATTED              ACCESS:SEQUENTIAL          

 OPENING "TutCoast_simple4.pcg"
 FILE TYPE:PCG   UNIT   13   STATUS:OLD    
 FORMAT:FORMATTED              ACCESS:SEQUENTIAL          

 THE FREE FORMAT OPTION HAS BEEN SELECTED

 DISCRETIZATION INPUT DATA READ FROM UNIT    7
 # MF2K DISCRETIZATION FILE
 #
 #
 # NLAY NROW NCOL NPER TIMEUNITS LENUNITS
    1 LAYERS       100 ROWS       100 COLUMNS
    1 STRESS PERIOD(S) IN SIMULATION
 MODEL TIME UNIT IS DAYS
 MODEL LENGTH UNIT IS METERS
 THE GROUND-WATER TRANSPORT PROCESS IS INACTIVE

 THE OBSERVATION PROCESS IS ACTIVE
 THE SENSITIVITY PROCESS IS INACTIVE
 THE PARAMETER-ESTIMATION PROCESS IS INACTIVE

 MODE: FORWARD WITH OBSERVATIONS

  Confining bed flag for each layer:
   0

      90200  ELEMENTS OF GX ARRAY USED OUT OF      90200
      10000  ELEMENTS OF GZ ARRAY USED OUT OF      10000
      10000  ELEMENTS OF IG ARRAY USED OUT OF      10000



                               DELR
 READING ON UNIT    7 WITH FORMAT: (FREE)              



                               DELC
 READING ON UNIT    7 WITH FORMAT: (FREE)              


 STRESS PERIOD     LENGTH       TIME STEPS     MULTIPLIER FOR DELT    SS FLAG
 ----------------------------------------------------------------------------
        1         1.000000          1                    1.000         SS

 STEADY-STATE SIMULATION




 LPF1 -- LAYER PROPERTY FLOW PACKAGE, VERSION 1, 1/11/2000
         INPUT READ FROM UNIT    9
 CELL-BY-CELL FLOWS WILL BE SAVED ON UNIT   40
 HEAD AT CELLS THAT CONVERT TO DRY=  -888.00    
 No named parameters

   LAYER FLAGS:
 LAYER       LAYTYP        LAYAVG         CHANI        LAYVKA        LAYWET
 ---------------------------------------------------------------------------
    1             1             0    -1.000E+00             1             0

   INTERPRETATION OF LAYER FLAGS:
                        INTERBLOCK     HORIZONTAL    DATA IN
         LAYER TYPE   TRANSMISSIVITY   ANISOTROPY   ARRAY VKA   WETTABILITY
 LAYER      (LAYTYP)      (LAYAVG)       (CHANI)      (LAYVKA)      (LAYWET)
 ---------------------------------------------------------------------------
    1   CONVERTIBLE      HARMONIC      VARIABLE    ANISOTROPY  NON-WETTABLE

      30000 ELEMENTS IN X ARRAY ARE USED BY LPF
          6 ELEMENTS IN IX ARRAY ARE USED BY LPF

 PCG2 -- CONJUGATE GRADIENT SOLUTION PACKAGE, VERSION 2.4, 12/29/98
 MAXIMUM OF     25 CALLS OF SOLUTION ROUTINE
 MAXIMUM OF     50 INTERNAL ITERATIONS PER CALL TO SOLUTION ROUTINE
 MATRIX PRECONDITIONING TYPE :    1
      22500 ELEMENTS IN X ARRAY ARE USED BY PCG
       8750 ELEMENTS IN IX ARRAY ARE USED BY PCG
      40000 ELEMENTS IN Z ARRAY ARE USED BY PCG

 OBS1BAS6 -- OBSERVATION PROCESS, VERSION 1.0, 4/27/99
 INPUT READ FROM UNIT  14
 OBSERVATION GRAPH-DATA OUTPUT FILES
 WILL BE PRINTED AND NAMED USING THE BASE: TutCoast_simple4

 HEAD OBSERVATIONS -- INPUT READ FROM UNIT  15
 #           CoverageGUID ObjectType ID X Y Time OBNAME
 #GMSCOMMENT 7dab1949-9623-47b5-bb91-24e77879d576 POINT 1, 528442.81114169, 8417157.9140141 ts_0 hed1
 #GMSCOMMENT 7dab1949-9623-47b5-bb91-24e77879d576 POINT 2, 524976.71432111, 8415359.3231363 ts_0 hed2
 #GMSCOMMENT 7dab1949-9623-47b5-bb91-24e77879d576 POINT 3, 524144.80478268, 8415297.2092131 ts_0 hed3
 #GMSCOMMENT 7dab1949-9623-47b5-bb91-24e77879d576 POINT 4, 524700.69646476, 8414861.994041 ts_0 hed4
 #GMSCOMMENT 7dab1949-9623-47b5-bb91-24e77879d576 POINT 5, 524713.81107357, 8414583.5714622 ts_0 hed5
 #GMSCOMMENT 7dab1949-9623-47b5-bb91-24e77879d576 POINT 6, 524706.69369897, 8414399.5455467 ts_0 hed6
 #GMSCOMMENT 7dab1949-9623-47b5-bb91-24e77879d576 POINT 7, 525432.37754296, 8413891.1937448 ts_0 hed7
 #GMSCOMMENT 7dab1949-9623-47b5-bb91-24e77879d576 POINT 8, 527186.19570822, 8416181.0676204 ts_0 hed8
 #GMSCOMMENT 7dab1949-9623-47b5-bb91-24e77879d576 POINT 9, 527468.71426294, 8416281.1870981 ts_0 hed9
 #GMSCOMMENT 7dab1949-9623-47b5-bb91-24e77879d576 POINT 10, 527519.08843849, 8415185.1049575 ts_0 hed10
 #GMSCOMMENT 7dab1949-9623-47b5-bb91-24e77879d576 POINT 11, 527951.74119238, 8415485.8640521 ts_0 hed11
 #GMSCOMMENT 7dab1949-9623-47b5-bb91-24e77879d576 POINT 12, 526691.22549348, 8414881.8237341 ts_0 hed12
 #GMSCOMMENT 7dab1949-9623-47b5-bb91-24e77879d576 POINT 13, 527187.57956034, 8415246.3029869 ts_0 hed13
 #GMSCOMMENT 7dab1949-9623-47b5-bb91-24e77879d576 POINT 14, 527121.15990985, 8413514.7943084 ts_0 hed14
 #GMSCOMMENT 7dab1949-9623-47b5-bb91-24e77879d576 POINT 15, 527365.12022011, 8413968.3461409 ts_0 hed15
 #GMSCOMMENT 7dab1949-9623-47b5-bb91-24e77879d576 POINT 16, 527484.79309416, 8413787.7049399 ts_0 hed16
 #GMSCOMMENT 7dab1949-9623-47b5-bb91-24e77879d576 POINT 17, 527990.34193066, 8414202.5981478 ts_0 hed17

 NUMBER OF HEADS....................................:   17
   NUMBER OF MULTILAYER HEADS.......................:    0
   MAXIMUM NUMBER OF LAYERS FOR MULTILAYER HEADS....:    0

        275 ELEMENTS IN X ARRAY ARE USED FOR OBSERVATIONS
          2 ELEMENTS IN Z ARRAY ARE USED FOR OBSERVATIONS
        173 ELEMENTS IN IX ARRAY ARE USED FOR OBSERVATIONS

 COMMON ERROR VARIANCE FOR ALL OBSERVATIONS SET TO:       1.000    

      52775  ELEMENTS OF X ARRAY USED OUT OF      52775
      40002  ELEMENTS OF Z ARRAY USED OUT OF      40002
       8929  ELEMENTS OF IX ARRAY USED OUT OF       8929
          0  ELEMENTS OF XHS ARRAY USED OUT OF          1

 HEAD OBSERVATION VARIANCES ARE MULTIPLIED BY:       1.000    

 OBSERVED HEAD DATA -- TIME OFFSETS ARE MULTIPLIED BY:   1.0000    

                    REFER.
       OBSERVATION  STRESS    TIME                              STATISTIC   PLOT
  OBS#    NAME      PERIOD   OFFSET    OBSERVATION  STATISTIC     TYPE      SYM.
     1 hed1             1    0.000       4.396      0.5102      STD. DEV.      1
     2 hed2             1    0.000       2.810      0.5102      STD. DEV.      1
     3 hed3             1    0.000       2.895      0.5102      STD. DEV.      1
     4 hed4             1    0.000       1.180      0.5102      STD. DEV.      1
     5 hed5             1    0.000       1.435      0.5102      STD. DEV.      1
     6 hed6             1    0.000       1.451      0.5102      STD. DEV.      1
     7 hed7             1    0.000       1.345      0.5102      STD. DEV.      1
     8 hed8             1    0.000       1.739      0.5102      STD. DEV.      1
     9 hed9             1    0.000       1.739      0.5102      STD. DEV.      1
    10 hed10            1    0.000      0.9940      0.5102      STD. DEV.      1
    11 hed11            1    0.000      0.9940      0.5102      STD. DEV.      1
    12 hed12            1    0.000       1.369      0.5102      STD. DEV.      1
    13 hed13            1    0.000       1.369      0.5102      STD. DEV.      1
    14 hed14            1    0.000      0.9600      0.5102      STD. DEV.      1
    15 hed15            1    0.000      0.9600      0.5102      STD. DEV.      1
    16 hed16            1    0.000      0.8430      0.5102      STD. DEV.      1
    17 hed17            1    0.000      0.8430      0.5102      STD. DEV.      1

                                                     HEAD CHANGE
                                                      REFERENCE
        OBSERVATION                   ROW     COL    OBSERVATION
  OBS#     NAME       LAY  ROW  COL  OFFSET  OFFSET   (IF > 0)
     1  hed1            1   60   40   0.392  -0.213        0
     2  hed2            1   71   29  -0.347   0.469        0
     3  hed3            1   71   27   0.007  -0.007        0
     4  hed4            1   73   29   0.490  -0.352        0
     5  hed5            1   75   29   0.078  -0.313        0
     6  hed6            1   76   29   0.128  -0.335        0
     7  hed7            1   79   31   0.028  -0.174        0
     8  hed8            1   66   36  -0.035   0.046        0
     9  hed9            1   65   37   0.394  -0.113        0
    10  hed10           1   72   37  -0.354   0.037        0
    11  hed11           1   70   38  -0.069   0.325        0
    12  hed12           1   73   35   0.377  -0.427        0
    13  hed13           1   71   36   0.297   0.050        0
    14  hed14           1   81   36   0.175  -0.147        0
    15  hed15           1   79   37  -0.412  -0.421        0
    16  hed16           1   80   37  -0.382  -0.065        0
    17  hed17           1   77   38   0.251   0.440        0



                                    SOLUTION BY THE CONJUGATE-GRADIENT METHOD
                                   -------------------------------------------
                    MAXIMUM NUMBER OF CALLS TO PCG ROUTINE =       25
                        MAXIMUM ITERATIONS PER CALL TO PCG =       50
                               MATRIX PRECONDITIONING TYPE =        1
        RELAXATION FACTOR (ONLY USED WITH PRECOND. TYPE 1) =    0.10000E+01
 PARAMETER OF POLYNOMIAL PRECOND. = 2 (2) OR IS CALCULATED :        0
                         HEAD CHANGE CRITERION FOR CLOSURE =    0.10000E-01
                     RESIDUAL CHANGE CRITERION FOR CLOSURE =    0.10000E-01
            PCG HEAD AND RESIDUAL CHANGE PRINTOUT INTERVAL =      999
     PRINTING FROM SOLVER IS LIMITED(1) OR SUPPRESSED (>1) =        2
                                         DAMPING PARAMETER =    0.10000E+01

 WETTING CAPABILITY IS NOT ACTIVE IN ANY LAYER


     0 Well parameters


     0 Recharge parameters

 SMALLEST AND LARGEST WEIGHTED RESIDUALS

      SMALLEST WEIGHTED RESIDUALS      |       LARGEST WEIGHTED RESIDUALS
                WEIGHTED   PERCENT OF  |                 WEIGHTED   PERCENT OF
 NAME           RESIDUAL    OBJ FUNC   |  NAME           RESIDUAL    OBJ FUNC
 hed8           -10.7        13.52     |  hed1           -3.05         1.10
 hed9           -10.3        12.55     |  hed14          -3.83         1.72
 hed13          -9.22        10.00     |  hed3           -4.45         2.33
 hed12          -8.83         9.18     |  hed16          -4.46         2.35
 hed10          -8.83         9.16     |  hed15          -4.83         2.74

 STATISTICS FOR ALL RESIDUALS :
 AVERAGE WEIGHTED RESIDUAL  :-0.668E+01
 # RESIDUALS >= 0. :      0
 # RESIDUALS < 0.  :     17
 NUMBER OF RUNS  :    1  IN   17 OBSERVATIONS

 COULD NOT CALCULATE THE RUNS STATISTIC

 CORRELATION BETWEEN ORDERED WEIGHTED RESIDUALS AND NORMAL ORDER STATISTICS
 FOR OBSERVATIONS =    0.947    

 --------------------------------------------------------------------------
 COMMENTS ON THE INTERPRETATION OF THE CORRELATION BETWEEN
 WEIGHTED RESIDUALS AND NORMAL ORDER STATISTICS:

 Generally, IF the reported CORRELATION is LESS than the critical value,
 at the selected significance level (usually 5 or 10%), the hypothesis
 that the weighted residuals are INDEPENDENT AND NORMALLY DISTRIBUTED
 would be REJECTED.  HOWEVER, in this case, conditions are outside of
 the range of published critical values as discussed below.

 The sum of the number of observations and prior information items is    17
 which is less than 35, the minimum value for which critical values are
 published.  Therefore, the critical values for the 5 and 10% significance
 levels are less than 0.943 and 0.952, respectively.

 CORRELATIONS GREATER than these critical values indicate that, probably, the 
 weighted residuals ARE INDEPENDENT AND NORMALLY DISTRIBUTED.

 Correlations LESS than these critical values MAY BE ACCEPTABLE, and
 rejection of the hypothesis is not necessarily warranted.

 The Kolmogorov-Smirnov test can be used to further evaluate the residuals.
 --------------------------------------------------------------------------

