#GMS MODFLOW Simulation
#16 April 2018
FREE
HDF5 1.0 -1 "TutCoast_simple4.h5" "Arrays/ibound1" 1 0 10000
-999.0
HDF5 1.0 -1 "TutCoast_simple4.h5" "Arrays/StartHead1" 1 0 10000
